@<TRIPOS>MOLECULE
164676
40 43 0 0 0 0
SMALL
@<TRIPOS>ATOM
      1 O         -36.0679   32.6311    4.0899 O.2     1  UNL1       -0.4619
      2 O         -32.5852   31.6250    8.0501 O.2     1  UNL1       -0.2832
      3 O         -31.9324   33.1838    6.0167 O.2     1  UNL1       -0.2830
      4 C         -36.7533   28.2616    9.0271 C.3     1  UNL1       -0.0096
      5 C         -35.7971   28.2014   10.2409 C.3     1  UNL1       -0.0436
      6 C         -36.3097   29.3203    8.0032 C.ar    1  UNL1       -0.0378
      7 C         -34.3441   28.1987    9.8100 C.3     1  UNL1       -0.0482
      8 C         -35.0214   29.9200    8.0388 C.ar    1  UNL1       -0.0321
      9 C         -34.0175   29.5002    9.0919 C.3     1  UNL1       -0.0267
     10 C         -38.1593   28.5709    9.5949 C.3     1  UNL1       -0.0558
     11 C         -36.8026   26.8832    8.3311 C.3     1  UNL1       -0.0558
     12 C         -34.7008   30.9286    7.0891 C.ar    1  UNL1        0.0397
     13 C         -37.2005   29.6818    6.9722 C.ar    1  UNL1       -0.0571
     14 C         -35.6276   31.2645    6.0690 C.ar    1  UNL1        0.0292
     15 C         -36.8656   30.6333    6.0143 C.ar    1  UNL1       -0.0501
     16 C         -35.2382   32.2618    5.0966 C.ar    1  UNL1        0.1466
     17 C         -33.3930   31.6983    7.1369 C.2     1  UNL1        0.2340
     18 C         -34.0467   32.9351    5.0286 C.ar    1  UNL1        0.0741
     19 C         -33.0420   32.6707    6.0175 C.2     1  UNL1        0.2368
     20 C         -34.1298   33.7811    3.9043 C.ar    1  UNL1       -0.0011
     21 C         -35.3815   33.5617    3.3659 C.ar    1  UNL1        0.0962
     22 C         -33.1048   34.7089    3.3952 C.3     1  UNL1       -0.0360
     23 H         -36.0024   27.3098   10.8468 H       1  UNL1        0.0274
     24 H         -35.9646   29.0659   10.8985 H       1  UNL1        0.0274
     25 H         -34.1343   27.3427    9.1587 H       1  UNL1        0.0269
     26 H         -33.6922   28.0917   10.6848 H       1  UNL1        0.0269
     27 H         -33.0333   29.3595    8.6316 H       1  UNL1        0.0313
     28 H         -33.9442   30.3052    9.8338 H       1  UNL1        0.0313
     29 H         -38.4218   27.8681   10.3947 H       1  UNL1        0.0238
     30 H         -38.2038   29.5839   10.0120 H       1  UNL1        0.0238
     31 H         -38.9452   28.4919    8.8365 H       1  UNL1        0.0238
     32 H         -35.8481   26.6284    7.8578 H       1  UNL1        0.0238
     33 H         -37.0462   26.0885    9.0454 H       1  UNL1        0.0238
     34 H         -37.5651   26.8556    7.5439 H       1  UNL1        0.0238
     35 H         -38.1776   29.2116    6.8931 H       1  UNL1        0.0621
     36 H         -37.5878   30.8710    5.2375 H       1  UNL1        0.0625
     37 H         -35.9093   33.9640    2.5132 H       1  UNL1        0.1032
     38 H         -33.4547   35.2473    2.5082 H       1  UNL1        0.0279
     39 H         -32.8444   35.4511    4.1568 H       1  UNL1        0.0279
     40 H         -32.1954   34.1647    3.1204 H       1  UNL1        0.0279
@<TRIPOS>BOND
     1     1    16   ar
     2     1    21   ar
     3     2    17    2
     4     3    19    2
     5     4     5    1
     6     4     6    1
     7     4    10    1
     8     4    11    1
     9     5     7    1
    10     5    23    1
    11     5    24    1
    12     6     8   ar
    13     6    13   ar
    14     7     9    1
    15     7    25    1
    16     7    26    1
    17     8     9    1
    18     8    12   ar
    19     9    27    1
    20     9    28    1
    21    10    29    1
    22    10    30    1
    23    10    31    1
    24    11    32    1
    25    11    33    1
    26    11    34    1
    27    12    14   ar
    28    12    17    1
    29    13    15   ar
    30    13    35    1
    31    14    15   ar
    32    14    16    1
    33    15    36    1
    34    16    18   ar
    35    17    19    1
    36    18    19    1
    37    18    20   ar
    38    20    21   ar
    39    20    22    1
    40    21    37    1
    41    22    38    1
    42    22    39    1
    43    22    40    1
