@<TRIPOS>MOLECULE
25022668
 51 55 0 0 0
SMALL
GASTEIGER

@<TRIPOS>ATOM
      1 O         -36.7840   30.3880    3.9490 O.3     1  UNL1       -0.4771
      2 O         -37.5150   31.5900    5.7350 O.2     1  UNL1       -0.2451
      3 N         -30.0690   35.5110    4.3820 N.ar    1  UNL1       -0.3452
      4 N         -29.7200   36.7360    2.3370 N.ar    1  UNL1       -0.2369
      5 C         -34.4400   31.2310    6.7400 C.3     1  UNL1       -0.0151
      6 C         -33.2840   30.2160    6.7540 C.3     1  UNL1       -0.0462
      7 C         -34.3660   31.9670    8.0930 C.3     1  UNL1       -0.0462
      8 C         -32.9230   30.0630    8.2230 C.3     1  UNL1       -0.0525
      9 C         -33.0920   31.4710    8.7660 C.3     1  UNL1       -0.0525
     10 C         -34.4010   32.1380    5.5290 C.ar    1  UNL1       -0.0297
     11 C         -33.2660   32.9160    5.3070 C.ar    1  UNL1       -0.0497
     12 C         -35.4770   32.2030    4.6430 C.ar    1  UNL1        0.0623
     13 C         -33.2060   33.7610    4.1980 C.ar    1  UNL1       -0.0155
     14 C         -35.4170   33.0480    3.5360 C.ar    1  UNL1       -0.0469
     15 C         -32.0380   34.5620    3.9680 C.ar    1  UNL1        0.0087
     16 C         -34.2810   33.8260    3.3120 C.ar    1  UNL1       -0.0532
     17 C         -36.6740   31.4000    4.8520 C.2     1  UNL1        0.3371
     18 C         -31.6730   35.3400    2.8380 C.ar    1  UNL1        0.0269
     19 C         -31.0320   34.6870    4.9030 C.ar    1  UNL1        0.0118
     20 C         -30.4410   35.9190    3.1280 C.ar    1  UNL1        0.1387
     21 C         -32.2440   35.6280    1.5880 C.ar    1  UNL1       -0.0413
     22 C         -31.5400   36.4700    0.7300 C.ar    1  UNL1        0.0009
     23 C         -30.3170   36.9800    1.1470 C.ar    1  UNL1        0.0376
     24 C         -32.0730   36.8060   -0.5710 C.ar    1  UNL1       -0.0164
     25 C         -32.2210   35.8140   -1.5410 C.ar    1  UNL1       -0.0540
     26 C         -32.4380   38.1200   -0.8580 C.ar    1  UNL1       -0.0540
     27 C         -32.7370   36.1370   -2.7960 C.ar    1  UNL1       -0.0612
     28 C         -32.9530   38.4450   -2.1130 C.ar    1  UNL1       -0.0612
     29 C         -33.1020   37.4530   -3.0820 C.ar    1  UNL1       -0.0617
     30 H         -36.0891   30.2667    3.2544 H       1  UNL1        0.2954
     31 H         -29.1981   35.7824    4.8603 H       1  UNL1        0.1668
     32 H         -35.4176   30.7372    6.6376 H       1  UNL1        0.0349
     33 H         -33.6079   29.2533    6.3318 H       1  UNL1        0.0271
     34 H         -32.4291   30.5502    6.1478 H       1  UNL1        0.0271
     35 H         -34.3175   33.0546    7.9353 H       1  UNL1        0.0271
     36 H         -35.2541   31.7686    8.7110 H       1  UNL1        0.0271
     37 H         -33.6041   29.3610    8.7262 H       1  UNL1        0.0265
     38 H         -31.9131   29.6564    8.3806 H       1  UNL1        0.0265
     39 H         -32.2332   32.1022    8.4937 H       1  UNL1        0.0265
     40 H         -33.1507   31.5003    9.8640 H       1  UNL1        0.0265
     41 H         -32.4179   32.8640    6.0056 H       1  UNL1        0.0627
     42 H         -36.2660   33.1014    2.8386 H       1  UNL1        0.0626
     43 H         -34.2332   34.4906    2.4368 H       1  UNL1        0.0624
     44 H         -31.0070   34.2090    5.8934 H       1  UNL1        0.0814
     45 H         -33.2154   35.2027    1.2958 H       1  UNL1        0.0631
     46 H         -29.7859   37.6418    0.4470 H       1  UNL1        0.0836
     47 H         -31.9307   34.7771   -1.3160 H       1  UNL1        0.0624
     48 H         -32.3198   38.9022   -0.0936 H       1  UNL1        0.0624
     49 H         -32.8561   35.3546   -3.5599 H       1  UNL1        0.0618
     50 H         -33.2412   39.4824   -2.3381 H       1  UNL1        0.0618
     51 H         -33.5075   37.7082   -4.0722 H       1  UNL1        0.0618
@<TRIPOS>BOND
     1     1    17    1
     2     2    17    2
     3     3    19   ar
     4     3    20   ar
     5     4    20   ar
     6     4    23   ar
     7     5     6    1
     8     5     7    1
     9     5    10    1
    10     6     8    1
    11     7     9    1
    12     8     9    1
    13    10    11   ar
    14    10    12   ar
    15    11    13   ar
    16    12    14   ar
    17    12    17    1
    18    13    15    1
    19    13    16   ar
    20    14    16   ar
    21    15    18   ar
    22    15    19   ar
    23    18    20   ar
    24    18    21   ar
    25    21    22   ar
    26    22    23   ar
    27    22    24    1
    28    24    25   ar
    29    24    26   ar
    30    25    27   ar
    31    26    28   ar
    32    27    29   ar
    33    28    29   ar
    34     1    30    1
    35     3    31    1
    36     5    32    1
    37     6    33    1
    38     6    34    1
    39     7    35    1
    40     7    36    1
    41     8    37    1
    42     8    38    1
    43     9    39    1
    44     9    40    1
    45    11    41    1
    46    14    42    1
    47    16    43    1
    48    19    44    1
    49    21    45    1
    50    23    46    1
    51    25    47    1
    52    26    48    1
    53    27    49    1
    54    28    50    1
    55    29    51    1
