@<TRIPOS>MOLECULE
439246
32 34 0 0 0 0
SMALL
@<TRIPOS>ATOM
      1 O         -34.4079   32.2238    5.5323 O.3     1  UNL1       -0.4828
      2 O         -32.6846   30.9892    9.0447 O.2     1  UNL1       -0.2917
      3 O         -34.8174   29.6022    9.6016 O.3     1  UNL1       -0.5058
      4 O         -38.2725   29.5994    6.3462 O.3     1  UNL1       -0.5065
      5 O         -30.8577   36.3199    2.3851 O.3     1  UNL1       -0.5068
      6 C         -33.4567   33.0554    6.2152 C.3     1  UNL1        0.1322
      7 C         -32.4496   32.2109    6.9934 C.3     1  UNL1        0.0520
      8 C         -32.7618   33.9280    5.1914 C.ar    1  UNL1       -0.0067
      9 C         -34.5459   30.9277    7.5934 C.ar    1  UNL1        0.1007
     10 C         -33.1897   31.3584    7.9912 C.2     1  UNL1        0.1740
     11 C         -35.0696   31.3677    6.3743 C.ar    1  UNL1        0.1389
     12 C         -35.2793   30.0573    8.4036 C.ar    1  UNL1        0.1343
     13 C         -36.3170   30.9086    5.9489 C.ar    1  UNL1        0.0225
     14 C         -32.9038   35.3141    5.2462 C.ar    1  UNL1       -0.0516
     15 C         -31.9803   33.3447    4.1946 C.ar    1  UNL1       -0.0516
     16 C         -36.5349   29.6178    7.9823 C.ar    1  UNL1        0.0222
     17 C         -37.0505   30.0383    6.7558 C.ar    1  UNL1        0.1238
     18 C         -32.2638   36.1179    4.3028 C.ar    1  UNL1       -0.0198
     19 C         -31.3401   34.1485    3.2513 C.ar    1  UNL1       -0.0198
     20 C         -31.4818   35.5352    3.3055 C.ar    1  UNL1        0.1169
     21 H         -34.0156   33.6988    6.9110 H       1  UNL1        0.0789
     22 H         -31.7458   32.8559    7.5312 H       1  UNL1        0.0385
     23 H         -31.8841   31.5270    6.3506 H       1  UNL1        0.0385
     24 H         -36.7233   31.2358    4.9951 H       1  UNL1        0.0691
     25 H         -33.5094   35.7830    6.0171 H       1  UNL1        0.0623
     26 H         -31.8669   32.2663    4.1282 H       1  UNL1        0.0623
     27 H         -37.1133   28.9395    8.6054 H       1  UNL1        0.0691
     28 H         -32.3779   37.1974    4.3501 H       1  UNL1        0.0654
     29 H         -30.7361   33.6822    2.4776 H       1  UNL1        0.0654
     30 H         -35.4777   29.0101   10.0006 H       1  UNL1        0.2922
     31 H         -38.6389   29.0063    7.0244 H       1  UNL1        0.2921
     32 H         -30.3612   35.7517    1.7715 H       1  UNL1        0.2921
@<TRIPOS>BOND
     1     1     6    1
     2     1    11    1
     3     2    10    2
     4     3    12    1
     5     3    30    1
     6     4    17    1
     7     4    31    1
     8     5    20    1
     9     5    32    1
    10     6     7    1
    11     6     8    1
    12     6    21    1
    13     7    10    1
    14     7    22    1
    15     7    23    1
    16     8    14   ar
    17     8    15   ar
    18     9    10    1
    19     9    11   ar
    20     9    12   ar
    21    11    13   ar
    22    12    16   ar
    23    13    17   ar
    24    13    24    1
    25    14    18   ar
    26    14    25    1
    27    15    19   ar
    28    15    26    1
    29    16    17   ar
    30    16    27    1
    31    18    20   ar
    32    18    28    1
    33    19    20   ar
    34    19    29    1
