@<TRIPOS>MOLECULE
445154
29 30 0 0 0 0
SMALL
@<TRIPOS>ATOM
      1 O         -32.3718   36.5062    3.5534 O.3     1  UNL1       -0.5066
      2 O         -28.5254   34.6965    1.3818 O.3     1  UNL1       -0.5066
      3 O         -33.7054   37.7684   -7.4602 O.3     1  UNL1       -0.5068
      4 C         -31.5515   36.1987    0.0159 C.ar    1  UNL1       -0.0181
      5 C         -32.0372   36.9272   -3.7539 C.ar    1  UNL1       -0.0248
      6 C         -32.1423   36.5171   -1.2962 C.2     1  UNL1       -0.0538
      7 C         -31.4522   36.6319   -2.4554 C.2     1  UNL1       -0.0540
      8 C         -30.3065   35.5941    0.0701 C.ar    1  UNL1       -0.0128
      9 C         -32.2534   36.5092    1.1692 C.ar    1  UNL1       -0.0128
     10 C         -31.6947   36.2068    2.4111 C.ar    1  UNL1        0.1209
     11 C         -29.7476   35.2916    1.3119 C.ar    1  UNL1        0.1209
     12 C         -33.3975   36.7098   -3.9720 C.ar    1  UNL1       -0.0511
     13 C         -31.2373   37.4276   -4.7813 C.ar    1  UNL1       -0.0511
     14 C         -30.4418   35.5980    2.4823 C.ar    1  UNL1        0.0213
     15 C         -33.9581   36.9925   -5.2176 C.ar    1  UNL1       -0.0196
     16 C         -31.7980   37.7105   -6.0268 C.ar    1  UNL1       -0.0196
     17 C         -33.1583   37.4929   -6.2451 C.ar    1  UNL1        0.1169
     18 H         -33.2167   36.6783   -1.2718 H       1  UNL1        0.0624
     19 H         -30.3713   36.5221   -2.4665 H       1  UNL1        0.0624
     20 H         -29.7455   35.3193   -0.8180 H       1  UNL1        0.0660
     21 H         -33.2297   36.9852    1.1168 H       1  UNL1        0.0660
     22 H         -34.0555   36.3008   -3.2110 H       1  UNL1        0.0625
     23 H         -30.1752   37.6051   -4.6302 H       1  UNL1        0.0625
     24 H         -30.0120   35.3650    3.4534 H       1  UNL1        0.0691
     25 H         -35.0182   36.8140   -5.3769 H       1  UNL1        0.0654
     26 H         -31.1700   38.1004   -6.8233 H       1  UNL1        0.0654
     27 H         -33.2188   36.9225    3.3183 H       1  UNL1        0.2921
     28 H         -28.2939   34.5605    2.3166 H       1  UNL1        0.2921
     29 H         -34.6548   37.5589   -7.4332 H       1  UNL1        0.2921
@<TRIPOS>BOND
     1     1    10    1
     2     1    27    1
     3     2    11    1
     4     2    28    1
     5     3    17    1
     6     3    29    1
     7     4     6    1
     8     4     8   ar
     9     4     9   ar
    10     5     7    1
    11     5    12   ar
    12     5    13   ar
    13     6     7    2
    14     6    18    1
    15     7    19    1
    16     8    11   ar
    17     8    20    1
    18     9    10   ar
    19     9    21    1
    20    10    14   ar
    21    11    14   ar
    22    12    15   ar
    23    12    22    1
    24    13    16   ar
    25    13    23    1
    26    14    24    1
    27    15    17   ar
    28    15    25    1
    29    16    17   ar
    30    16    26    1
