@<TRIPOS>MOLECULE
5280863
31 33 0 0 0 0
SMALL
@<TRIPOS>ATOM
      1 O         -33.7147   34.5098    2.8832 O.2     1  UNL1       -0.4507
      2 O         -30.3782   35.4629    4.1271 O.3     1  UNL1       -0.5007
      3 O         -33.0384   31.9359    6.9335 O.3     1  UNL1       -0.5058
      4 O         -31.2531   33.6034    6.0014 O.2     1  UNL1       -0.2830
      5 O         -37.0641   31.5328    4.4484 O.3     1  UNL1       -0.5065
      6 O         -31.3160   38.7364   -1.1186 O.3     1  UNL1       -0.5068
      7 C         -33.3173   33.2474    4.9179 C.ar    1  UNL1        0.1092
      8 C         -34.1123   33.6017    3.8301 C.ar    1  UNL1        0.1465
      9 C         -32.4627   35.0908    3.0086 C.ar    1  UNL1        0.1806
     10 C         -31.9930   33.8707    5.0640 C.ar    1  UNL1        0.2379
     11 C         -31.6037   34.8427    4.0141 C.ar    1  UNL1        0.2082
     12 C         -32.1615   36.0461    1.9276 C.ar    1  UNL1        0.0213
     13 C         -33.7755   32.3160    5.8532 C.ar    1  UNL1        0.1348
     14 C         -35.3732   33.0264    3.6705 C.ar    1  UNL1        0.0231
     15 C         -35.8342   32.0959    4.6020 C.ar    1  UNL1        0.1239
     16 C         -35.0368   31.7416    5.6910 C.ar    1  UNL1        0.0223
     17 C         -31.5188   35.6091    0.7691 C.ar    1  UNL1       -0.0475
     18 C         -32.5199   37.3876    2.0620 C.ar    1  UNL1       -0.0475
     19 C         -31.2344   36.5131   -0.2545 C.ar    1  UNL1       -0.0195
     20 C         -32.2358   38.2916    1.0383 C.ar    1  UNL1       -0.0195
     21 C         -31.5928   37.8543   -0.1198 C.ar    1  UNL1        0.1169
     22 H         -35.9964   33.3011    2.8231 H       1  UNL1        0.0691
     23 H         -35.3949   31.0165    6.4182 H       1  UNL1        0.0691
     24 H         -31.2339   34.5665    0.6497 H       1  UNL1        0.0626
     25 H         -33.0218   37.7432    2.9586 H       1  UNL1        0.0626
     26 H         -30.7335   36.1597   -1.1519 H       1  UNL1        0.0654
     27 H         -32.5177   39.3351    1.1488 H       1  UNL1        0.0654
     28 H         -30.2479   36.0733    3.3838 H       1  UNL1        0.2924
     29 H         -32.1840   32.3936    6.9409 H       1  UNL1        0.2922
     30 H         -37.2212   30.9133    5.1816 H       1  UNL1        0.2921
     31 H         -30.8704   38.2633   -1.8422 H       1  UNL1        0.2921
@<TRIPOS>BOND
     1     1     8   ar
     2     1     9   ar
     3     2    11    1
     4     2    28    1
     5     3    13    1
     6     3    29    1
     7     4    10    2
     8     5    15    1
     9     5    30    1
    10     6    21    1
    11     6    31    1
    12     7     8   ar
    13     7    10   ar
    14     7    13   ar
    15     8    14   ar
    16     9    11   ar
    17     9    12    1
    18    10    11   ar
    19    12    17   ar
    20    12    18   ar
    21    13    16   ar
    22    14    15   ar
    23    14    22    1
    24    15    16   ar
    25    16    23    1
    26    17    19   ar
    27    17    24    1
    28    18    20   ar
    29    18    25    1
    30    19    21   ar
    31    19    26    1
    32    20    21   ar
    33    20    27    1
