@<TRIPOS>MOLECULE
5280445
31 33 0 0 0 0
SMALL
@<TRIPOS>ATOM
      1 O         -34.1704   32.2684    6.4235 O.2     1  UNL1       -0.4544
      2 O         -37.6886   28.9350    6.3454 O.3     1  UNL1       -0.5058
      3 O         -37.0554   30.3828    4.2508 O.2     1  UNL1       -0.2869
      4 O         -35.1960   29.7379   10.3074 O.3     1  UNL1       -0.5065
      5 O         -30.1331   34.9381    5.0759 O.3     1  UNL1       -0.5033
      6 O         -31.0465   36.6304    3.0700 O.3     1  UNL1       -0.5033
      7 C         -35.9437   30.6115    6.3235 C.ar    1  UNL1        0.1055
      8 C         -34.9416   31.2964    7.0087 C.ar    1  UNL1        0.1462
      9 C         -34.3945   32.5757    5.0901 C.ar    1  UNL1        0.1393
     10 C         -33.5147   33.6380    4.5631 C.ar    1  UNL1        0.0211
     11 C         -36.1906   30.9412    4.9115 C.ar    1  UNL1        0.1966
     12 C         -35.3327   31.9922    4.3274 C.ar    1  UNL1        0.0288
     13 C         -36.6990   29.6310    6.9708 C.ar    1  UNL1        0.1347
     14 C         -34.6885   31.0040    8.3491 C.ar    1  UNL1        0.0231
     15 C         -32.2219   33.7941    5.0696 C.ar    1  UNL1       -0.0059
     16 C         -35.4405   30.0251    8.9993 C.ar    1  UNL1        0.1239
     17 C         -36.4434   29.3402    8.3115 C.ar    1  UNL1        0.0223
     18 C         -33.9708   34.4917    3.5557 C.ar    1  UNL1       -0.0474
     19 C         -31.3905   34.7973    4.5715 C.ar    1  UNL1        0.1589
     20 C         -33.1395   35.4951    3.0578 C.ar    1  UNL1       -0.0159
     21 C         -31.8493   35.6478    3.5656 C.ar    1  UNL1        0.1583
     22 H         -35.4978   32.2254    3.2820 H       1  UNL1        0.0693
     23 H         -33.9080   31.5361    8.8871 H       1  UNL1        0.0691
     24 H         -31.8415   33.1366    5.8483 H       1  UNL1        0.0662
     25 H         -37.0304   28.5772    8.8173 H       1  UNL1        0.0691
     26 H         -34.9759   34.4194    3.1490 H       1  UNL1        0.0626
     27 H         -33.5109   36.1538    2.2773 H       1  UNL1        0.0655
     28 H         -37.7732   29.2189    5.4223 H       1  UNL1        0.2922
     29 H         -35.8069   29.0383   10.5964 H       1  UNL1        0.2921
     30 H         -29.7005   35.6792    4.6172 H       1  UNL1        0.2923
     31 H         -31.5307   37.1181    2.3818 H       1  UNL1        0.2923
@<TRIPOS>BOND
     1     1     8   ar
     2     1     9   ar
     3     2    13    1
     4     2    28    1
     5     3    11    2
     6     4    16    1
     7     4    29    1
     8     5    19    1
     9     5    30    1
    10     6    21    1
    11     6    31    1
    12     7     8   ar
    13     7    11   ar
    14     7    13   ar
    15     8    14   ar
    16     9    10    1
    17     9    12   ar
    18    10    15   ar
    19    10    18   ar
    20    11    12   ar
    21    12    22    1
    22    13    17   ar
    23    14    16   ar
    24    14    23    1
    25    15    19   ar
    26    15    24    1
    27    16    17   ar
    28    17    25    1
    29    18    20   ar
    30    18    26    1
    31    19    21   ar
    32    20    21   ar
    33    20    27    1
