@<TRIPOS>MOLECULE
5281708
29 31 0 0 0 0
SMALL
@<TRIPOS>ATOM
      1 O         -36.8647   31.9029    5.0726 O.2     1  UNL1       -0.4620
      2 O         -33.0514   31.8911    6.5242 O.2     1  UNL1       -0.2864
      3 O         -38.1063   28.2943    7.8974 O.3     1  UNL1       -0.5066
      4 O         -31.0921   36.5711    2.7191 O.3     1  UNL1       -0.5068
      5 C         -35.2038   30.9378    6.5561 C.ar    1  UNL1        0.0648
      6 C         -34.6263   32.8433    5.0133 C.ar    1  UNL1        0.0643
      7 C         -36.4946   30.9954    6.0318 C.ar    1  UNL1        0.1419
      8 C         -34.1878   31.8889    6.0686 C.ar    1  UNL1        0.2001
      9 C         -33.7023   33.8189    4.4125 C.ar    1  UNL1       -0.0110
     10 C         -35.9041   32.7698    4.6112 C.ar    1  UNL1        0.1038
     11 C         -34.8834   29.9919    7.5334 C.ar    1  UNL1       -0.0439
     12 C         -37.4725   30.1079    6.4818 C.ar    1  UNL1        0.0228
     13 C         -33.5732   35.0945    4.9659 C.ar    1  UNL1       -0.0504
     14 C         -32.9508   33.4717    3.2879 C.ar    1  UNL1       -0.0504
     15 C         -37.1549   29.1625    7.4572 C.ar    1  UNL1        0.1204
     16 C         -35.8632   29.1047    7.9815 C.ar    1  UNL1       -0.0193
     17 C         -32.6969   36.0189    4.3972 C.ar    1  UNL1       -0.0196
     18 C         -32.0742   34.3958    2.7193 C.ar    1  UNL1       -0.0196
     19 C         -31.9474   35.6696    3.2739 C.ar    1  UNL1        0.1169
     20 H         -36.3323   33.4090    3.8486 H       1  UNL1        0.1037
     21 H         -33.8841   29.9307    7.9548 H       1  UNL1        0.0627
     22 H         -38.4795   30.1511    6.0746 H       1  UNL1        0.0691
     23 H         -34.1497   35.3815    5.8422 H       1  UNL1        0.0625
     24 H         -33.0375   32.4825    2.8445 H       1  UNL1        0.0625
     25 H         -35.6065   28.3716    8.7417 H       1  UNL1        0.0654
     26 H         -32.6070   37.0077    4.8390 H       1  UNL1        0.0654
     27 H         -31.4927   34.1178    1.8446 H       1  UNL1        0.0654
     28 H         -37.7142   27.7115    8.5702 H       1  UNL1        0.2921
     29 H         -31.1312   37.3980    3.2296 H       1  UNL1        0.2921
@<TRIPOS>BOND
     1     1     7   ar
     2     1    10   ar
     3     2     8    2
     4     3    15    1
     5     3    28    1
     6     4    19    1
     7     4    29    1
     8     5     7   ar
     9     5     8   ar
    10     5    11   ar
    11     6     8   ar
    12     6     9    1
    13     6    10   ar
    14     7    12   ar
    15     9    13   ar
    16     9    14   ar
    17    10    20    1
    18    11    16   ar
    19    11    21    1
    20    12    15   ar
    21    12    22    1
    22    13    17   ar
    23    13    23    1
    24    14    18   ar
    25    14    24    1
    26    15    16   ar
    27    16    25    1
    28    17    19   ar
    29    17    26    1
    30    18    19   ar
    31    18    27    1
